Version 4
SHEET 1 1256 680
WIRE 240 16 112 16
WIRE 448 16 320 16
WIRE 944 16 768 16
WIRE 1200 16 1024 16
WIRE 768 64 768 16
WIRE 112 80 112 16
WIRE 448 96 448 16
WIRE 1200 112 1200 16
WIRE 1200 128 1200 112
WIRE 112 192 112 160
WIRE 448 192 448 160
WIRE 768 192 768 144
WIRE 1200 192 1200 176
FLAG 112 192 0
FLAG 448 192 0
FLAG 112 16 Vi
FLAG 448 16 Vo
FLAG 768 192 0
FLAG 1200 192 0
SYMBOL voltage 112 64 R0
WINDOW 3 -33 178 Left 2
WINDOW 123 0 0 Left 0
WINDOW 39 0 0 Left 0
SYMATTR InstName V1
SYMATTR Value PULSE(-3 3 0.01n 0.01n 0.01n 3.125u 6.25u 20)
SYMBOL res 336 0 R90
WINDOW 0 0 56 VBottom 2
WINDOW 3 32 56 VTop 2
SYMATTR InstName R1
SYMATTR Value 1k
SYMBOL cap 432 96 R0
SYMATTR InstName C1
SYMATTR Value 10n
SYMBOL voltage 768 48 R0
SYMATTR InstName V2
SYMATTR Value ac
SYMBOL res 1040 0 R90
WINDOW 0 0 56 VBottom 2
WINDOW 3 32 56 VTop 2
SYMATTR InstName R2
SYMATTR Value 1k
SYMBOL cap 1184 112 R0
SYMATTR InstName C2
SYMATTR Value 10n
TEXT 78 262 Left 2 !.tran 0 7.5u 0 0.001u
TEXT 768 248 Left 2 !;ac dec 100 1 1meg
