Version 4
SHEET 1 1620 680
WIRE 144 -288 128 -288
WIRE 320 -288 224 -288
WIRE 480 -288 320 -288
WIRE 608 -288 560 -288
WIRE 1040 -288 1024 -288
WIRE 1200 -288 1040 -288
WIRE 1328 -288 1280 -288
WIRE 784 -256 672 -256
WIRE 672 -208 672 -256
WIRE 688 -208 672 -208
WIRE 144 -192 128 -192
WIRE 240 -192 224 -192
WIRE 320 -192 320 -288
WIRE 352 -192 320 -192
WIRE 784 -192 784 -256
WIRE 784 -192 752 -192
WIRE 864 -192 848 -192
WIRE 960 -192 944 -192
WIRE 1040 -192 1040 -288
WIRE 1072 -192 1040 -192
WIRE 608 -176 608 -288
WIRE 608 -176 416 -176
WIRE 688 -176 608 -176
WIRE 1328 -176 1328 -288
WIRE 1328 -176 1136 -176
WIRE -176 -160 -176 -208
WIRE -176 -160 -272 -160
WIRE 352 -160 336 -160
WIRE 608 -160 608 -176
WIRE 1072 -160 1056 -160
WIRE 1328 -160 1328 -176
WIRE -272 -128 -272 -160
WIRE -176 -96 -176 -160
WIRE 608 -64 608 -80
WIRE 1328 -64 1328 -80
WIRE 112 -48 -16 -48
WIRE -16 16 -16 -48
WIRE 0 16 -16 16
WIRE 112 32 112 -48
WIRE 112 32 64 32
WIRE 128 32 128 -192
WIRE 128 32 112 32
WIRE 144 32 128 32
WIRE 240 32 224 32
WIRE 336 32 336 -160
WIRE 336 32 320 32
WIRE 480 32 336 32
WIRE 608 32 608 16
WIRE 608 32 544 32
WIRE 784 32 784 -192
WIRE 848 32 848 -192
WIRE 848 32 784 32
WIRE 864 32 848 32
WIRE 960 32 944 32
WIRE 1056 32 1056 -160
WIRE 1056 32 1040 32
WIRE 1200 32 1056 32
WIRE 1328 32 1328 16
WIRE 1328 32 1264 32
WIRE 0 48 -64 48
WIRE -64 80 -64 48
WIRE 336 80 336 32
WIRE 1056 80 1056 32
WIRE 608 128 608 32
WIRE 1328 128 1328 32
WIRE 608 240 608 192
WIRE 1328 240 1328 192
WIRE 128 320 128 32
WIRE 304 320 304 224
WIRE 304 320 128 320
WIRE 368 320 368 224
WIRE 544 320 544 32
WIRE 544 320 368 320
WIRE 848 320 848 32
WIRE 1024 320 848 320
WIRE 1264 320 1264 32
WIRE 1264 320 1088 320
FLAG -64 160 0
FLAG -272 -128 0
FLAG -176 -288 +Vcc
FLAG -176 -16 -Vcc
FLAG 128 -288 0
FLAG 608 240 0
FLAG 384 -208 +Vcc
FLAG 384 -144 -Vcc
FLAG -64 48 Vin
FLAG 416 160 0
FLAG 32 0 +Vcc
FLAG 32 64 -Vcc
FLAG 720 -224 +Vcc
FLAG 720 -160 -Vcc
FLAG 1328 240 0
FLAG 1104 -208 +Vcc
FLAG 1104 -144 -Vcc
FLAG 1136 160 0
FLAG 1328 -176 Vout
FLAG 864 -288 0
SYMBOL voltage -64 64 R0
WINDOW 123 24 124 Left 2
WINDOW 39 0 0 Left 0
SYMATTR Value2 AC 1
SYMATTR InstName V1
SYMATTR Value ""
SYMBOL voltage -176 -304 R0
WINDOW 123 0 0 Left 0
WINDOW 39 0 0 Left 0
SYMATTR InstName V2
SYMATTR Value 15
SYMBOL voltage -176 -112 R0
WINDOW 123 0 0 Left 0
WINDOW 39 0 0 Left 0
SYMATTR InstName V3
SYMATTR Value 15
SYMBOL cap 544 16 R90
WINDOW 0 0 32 VBottom 2
WINDOW 3 32 32 VTop 2
SYMATTR InstName C1
SYMATTR Value 47n
SYMBOL res 240 -304 R90
WINDOW 0 0 56 VBottom 2
WINDOW 3 32 56 VTop 2
SYMATTR InstName Ra4
SYMATTR Value 82k
SYMBOL res 576 -304 R90
WINDOW 0 0 56 VBottom 2
WINDOW 3 32 56 VTop 2
SYMATTR InstName Rb1
SYMATTR Value 20k
SYMBOL cap 592 128 R0
SYMATTR InstName C4
SYMATTR Value 10n
SYMBOL sympropio\\TL084 384 -240 R0
SYMATTR InstName U3
SYMBOL cap 368 304 R90
WINDOW 0 0 32 VBottom 2
WINDOW 3 32 32 VTop 2
SYMATTR InstName C2
SYMATTR Value 36n
SYMBOL cap 304 240 R270
WINDOW 0 32 32 VTop 2
WINDOW 3 0 32 VBottom 2
SYMATTR InstName C5
SYMATTR Value 1n
SYMBOL res 592 -176 R0
SYMATTR InstName R1a
SYMATTR Value 82
SYMBOL res 592 -80 R0
SYMATTR InstName R1b
SYMATTR Value 6,2
SYMBOL res 320 64 R0
WINDOW 0 -26 26 Left 2
WINDOW 3 -46 54 Left 2
SYMATTR InstName R2
SYMATTR Value 127
SYMBOL res 432 144 R90
WINDOW 0 -3 37 VBottom 2
WINDOW 3 31 41 VTop 2
SYMATTR InstName R3
SYMATTR Value 1
SYMBOL res 240 16 R90
WINDOW 0 0 56 VBottom 2
WINDOW 3 32 56 VTop 2
SYMATTR InstName R5
SYMATTR Value 2.7k
SYMBOL res 336 16 R90
WINDOW 0 0 56 VBottom 2
WINDOW 3 32 56 VTop 2
SYMATTR InstName R6
SYMATTR Value 240
SYMBOL res 240 -208 R90
WINDOW 0 0 56 VBottom 2
WINDOW 3 32 56 VTop 2
SYMATTR InstName R7
SYMATTR Value 620k
SYMBOL res 336 -208 R90
WINDOW 0 0 56 VBottom 2
WINDOW 3 32 56 VTop 2
SYMATTR InstName R8
SYMATTR Value 13k
SYMBOL sympropio\\TL084 32 -32 R0
SYMATTR InstName U1
SYMBOL sympropio\\TL084 720 -256 R0
SYMATTR InstName U2
SYMBOL cap 1264 16 R90
WINDOW 0 0 32 VBottom 2
WINDOW 3 32 32 VTop 2
SYMATTR InstName C3
SYMATTR Value 10n
SYMBOL res 1296 -304 R90
WINDOW 0 0 56 VBottom 2
WINDOW 3 32 56 VTop 2
SYMATTR InstName Rb2
SYMATTR Value 2k
SYMBOL cap 1312 128 R0
SYMATTR InstName C21
SYMATTR Value 1.5n
SYMBOL sympropio\\TL084 1104 -240 R0
SYMATTR InstName U4
SYMBOL cap 1088 304 R90
WINDOW 0 0 32 VBottom 2
WINDOW 3 32 32 VTop 2
SYMATTR InstName C22
SYMATTR Value 8.5n
SYMBOL res 1312 -176 R0
SYMATTR InstName R1
SYMATTR Value 330
SYMBOL res 1312 -80 R0
SYMATTR InstName R4
SYMATTR Value 15
SYMBOL res 1040 64 R0
WINDOW 0 -51 26 Left 2
WINDOW 3 -54 54 Left 2
SYMATTR InstName R411
SYMATTR Value 2.4k
SYMBOL res 1152 144 R90
WINDOW 0 -3 37 VBottom 2
WINDOW 3 31 41 VTop 2
SYMATTR InstName R412
SYMATTR Value 82
SYMBOL res 960 16 R90
WINDOW 0 0 56 VBottom 2
WINDOW 3 32 56 VTop 2
SYMATTR InstName R421
SYMATTR Value 5.6k
SYMBOL res 1056 16 R90
WINDOW 0 0 56 VBottom 2
WINDOW 3 32 56 VTop 2
SYMATTR InstName R422
SYMATTR Value 47
SYMBOL res 960 -208 R90
WINDOW 0 0 56 VBottom 2
WINDOW 3 32 56 VTop 2
SYMATTR InstName Ra21
SYMATTR Value 16k
SYMBOL res 1056 -208 R90
WINDOW 0 0 56 VBottom 2
WINDOW 3 32 56 VTop 2
SYMATTR InstName Ra22
SYMATTR Value 1800
SYMBOL res 1040 -304 R90
WINDOW 0 0 56 VBottom 2
WINDOW 3 32 56 VTop 2
SYMATTR InstName R9
SYMATTR Value 270
SYMBOL res 960 -304 R90
WINDOW 0 0 56 VBottom 2
WINDOW 3 32 56 VTop 2
SYMATTR InstName R10
SYMATTR Value 12k
TEXT 64 400 Left 2 !.ac dec 100 1k 1Meg
