Version 4
SHEET 1 1620 680
WIRE -192 -480 -192 -528
WIRE -192 -480 -288 -480
WIRE -288 -448 -288 -480
WIRE -192 -416 -192 -480
WIRE -80 -288 -96 -288
WIRE 96 -288 0 -288
WIRE 256 -288 96 -288
WIRE 384 -288 336 -288
WIRE 880 -288 864 -288
WIRE 1056 -288 960 -288
WIRE 1216 -288 1056 -288
WIRE 1344 -288 1296 -288
WIRE -16 -192 -96 -192
WIRE 96 -192 96 -288
WIRE 96 -192 64 -192
WIRE 128 -192 96 -192
WIRE 736 -192 560 -192
WIRE 944 -192 864 -192
WIRE 1056 -192 1056 -288
WIRE 1056 -192 1024 -192
WIRE 1088 -192 1056 -192
WIRE 384 -176 384 -288
WIRE 384 -176 192 -176
WIRE 512 -176 384 -176
WIRE 1344 -176 1344 -288
WIRE 1344 -176 1152 -176
WIRE 128 -160 112 -160
WIRE 384 -160 384 -176
WIRE 1088 -160 1072 -160
WIRE 1344 -160 1344 -176
WIRE 560 -144 560 -192
WIRE 592 -144 560 -144
WIRE -160 -128 -320 -128
WIRE 736 -128 736 -192
WIRE 736 -128 656 -128
WIRE 512 -112 512 -176
WIRE 592 -112 512 -112
WIRE -320 -80 -320 -128
WIRE -272 -80 -320 -80
WIRE -160 -64 -160 -128
WIRE -160 -64 -208 -64
WIRE -96 -64 -96 -192
WIRE -96 -64 -160 -64
WIRE -16 -64 -96 -64
WIRE 112 -64 112 -160
WIRE 112 -64 64 -64
WIRE 256 -64 112 -64
WIRE 384 -64 384 -80
WIRE 384 -64 320 -64
WIRE 736 -64 736 -128
WIRE 864 -64 864 -192
WIRE 864 -64 736 -64
WIRE 944 -64 864 -64
WIRE 1072 -64 1072 -160
WIRE 1072 -64 1024 -64
WIRE 1216 -64 1072 -64
WIRE 1344 -64 1344 -80
WIRE 1344 -64 1280 -64
WIRE -272 -48 -400 -48
WIRE -400 -32 -400 -48
WIRE 112 -16 112 -64
WIRE 1072 -16 1072 -64
WIRE -400 0 -400 -32
WIRE 384 32 384 -64
WIRE 1344 32 1344 -64
WIRE 384 144 384 96
WIRE 1344 144 1344 96
WIRE -96 176 -96 -64
WIRE 96 176 -96 176
WIRE 320 176 320 -64
WIRE 320 176 160 176
WIRE 864 176 864 -64
WIRE 1056 176 864 176
WIRE 1280 176 1280 -64
WIRE 1280 176 1120 176
FLAG -400 80 0
FLAG 1072 64 0
FLAG 864 -288 0
FLAG 1344 144 0
FLAG -288 -448 0
FLAG 1120 -208 +Vcc
FLAG 1120 -144 -Vcc
FLAG -192 -608 +Vcc
FLAG -192 -336 -Vcc
FLAG 112 64 0
FLAG -96 -288 0
FLAG 384 144 0
FLAG 160 -208 +Vcc
FLAG 160 -144 -Vcc
FLAG -400 -32 Vin
FLAG 1344 -176 Vout
FLAG 624 -160 Vcc
FLAG 624 -96 -Vcc
FLAG -240 -96 +Vcc
FLAG -240 -32 -Vcc
SYMBOL voltage -400 -16 R0
WINDOW 123 24 180 Left 2
WINDOW 39 0 0 Left 0
WINDOW 3 24 152 Left 2
SYMATTR Value2 AC 1
SYMATTR InstName V1
SYMATTR Value ""
SYMBOL res 1040 -80 R90
WINDOW 0 0 56 VBottom 2
WINDOW 3 32 56 VTop 2
SYMATTR InstName R42
SYMATTR Value 5645.8
SYMBOL res 1040 -208 R90
WINDOW 0 0 56 VBottom 2
WINDOW 3 32 56 VTop 2
SYMATTR InstName Ra2
SYMATTR Value 17993
SYMBOL res 1056 -32 R0
SYMATTR InstName R41
SYMATTR Value 2490
SYMBOL cap 1280 -80 R90
WINDOW 0 0 32 VBottom 2
WINDOW 3 32 32 VTop 2
SYMATTR InstName C3
SYMATTR Value 10n
SYMBOL cap 1120 160 R90
WINDOW 0 0 32 VBottom 2
WINDOW 3 32 32 VTop 2
SYMATTR InstName C22
SYMATTR Value 8.5n
SYMBOL res 976 -304 R90
WINDOW 0 0 56 VBottom 2
WINDOW 3 32 56 VTop 2
SYMATTR InstName Ra1
SYMATTR Value 12263
SYMBOL res 1312 -304 R90
WINDOW 0 0 56 VBottom 2
WINDOW 3 32 56 VTop 2
SYMATTR InstName Rb
SYMATTR Value 2k
SYMBOL cap 1328 32 R0
SYMATTR InstName C21
SYMATTR Value 1.5n
SYMBOL voltage -192 -624 R0
WINDOW 123 0 0 Left 0
WINDOW 39 0 0 Left 0
SYMATTR InstName V2
SYMATTR Value 15
SYMBOL voltage -192 -432 R0
WINDOW 123 0 0 Left 0
WINDOW 39 0 0 Left 0
SYMATTR InstName V3
SYMATTR Value 15
SYMBOL res 80 -80 R90
WINDOW 0 0 56 VBottom 2
WINDOW 3 32 56 VTop 2
SYMATTR InstName R9
SYMATTR Value 2.931k
SYMBOL res 80 -208 R90
WINDOW 0 0 56 VBottom 2
WINDOW 3 32 56 VTop 2
SYMATTR InstName Ra3
SYMATTR Value 633.5k
SYMBOL res 96 -32 R0
SYMATTR InstName R2
SYMATTR Value 128.48
SYMBOL cap 320 -80 R90
WINDOW 0 0 32 VBottom 2
WINDOW 3 32 32 VTop 2
SYMATTR InstName C1
SYMATTR Value 47n
SYMBOL cap 160 160 R90
WINDOW 0 0 32 VBottom 2
WINDOW 3 32 32 VTop 2
SYMATTR InstName C2
SYMATTR Value 36.93n
SYMBOL res 16 -304 R90
WINDOW 0 0 56 VBottom 2
WINDOW 3 32 56 VTop 2
SYMATTR InstName Ra4
SYMATTR Value 82k
SYMBOL res 352 -304 R90
WINDOW 0 0 56 VBottom 2
WINDOW 3 32 56 VTop 2
SYMATTR InstName Rb1
SYMATTR Value 20k
SYMBOL cap 368 32 R0
SYMATTR InstName C4
SYMATTR Value 10n
SYMBOL res 1328 -176 R0
SYMATTR InstName R1
SYMATTR Value 344.39
SYMBOL res 368 -176 R0
SYMATTR InstName R3
SYMATTR Value 88.4
SYMBOL sympropio\\TL084 160 -240 R0
SYMATTR InstName U3
SYMBOL sympropio\\TL084 1120 -240 R0
SYMATTR InstName U4
SYMBOL sympropio\\TL084 624 -192 R0
SYMATTR InstName U1
SYMBOL sympropio\\TL084 -240 -128 R0
SYMATTR InstName U2
TEXT -308 226 Left 2 !.ac dec 100 1k 400k
