Version 4
SHEET 1 1620 680
WIRE -192 -480 -192 -528
WIRE -192 -480 -288 -480
WIRE -288 -448 -288 -480
WIRE -192 -416 -192 -480
WIRE 144 -304 128 -304
WIRE 320 -304 224 -304
WIRE 480 -304 320 -304
WIRE 608 -304 560 -304
WIRE 208 -208 128 -208
WIRE 320 -208 320 -304
WIRE 320 -208 288 -208
WIRE 352 -208 320 -208
WIRE 608 -192 608 -304
WIRE 608 -192 416 -192
WIRE 352 -176 336 -176
WIRE 608 -176 608 -192
WIRE 128 -80 128 -208
WIRE 128 -80 -16 -80
WIRE 208 -80 128 -80
WIRE 336 -80 336 -176
WIRE 336 -80 288 -80
WIRE 480 -80 336 -80
WIRE 608 -80 608 -96
WIRE 608 -80 544 -80
WIRE -16 -48 -16 -80
WIRE 336 -32 336 -80
WIRE 608 16 608 -80
WIRE 608 128 608 80
WIRE 128 160 128 -80
WIRE 320 160 128 160
WIRE 544 160 544 -80
WIRE 544 160 384 160
FLAG -16 32 0
FLAG 336 48 0
FLAG 128 -304 0
FLAG 608 128 0
FLAG -288 -448 0
FLAG 384 -224 +Vcc
FLAG 384 -160 -Vcc
FLAG -192 -608 +Vcc
FLAG -192 -336 -Vcc
FLAG -16 -80 Vin
FLAG 608 -192 Vout
SYMBOL voltage -16 -64 R0
WINDOW 123 24 124 Left 2
WINDOW 39 0 0 Left 0
SYMATTR Value2 AC 1
SYMATTR InstName V1
SYMATTR Value ""
SYMBOL res 304 -96 R90
WINDOW 0 0 56 VBottom 2
WINDOW 3 32 56 VTop 2
SYMATTR InstName R42
SYMATTR Value 5645.8
SYMBOL res 304 -224 R90
WINDOW 0 0 56 VBottom 2
WINDOW 3 32 56 VTop 2
SYMATTR InstName Ra2
SYMATTR Value 17993
SYMBOL res 320 -48 R0
SYMATTR InstName R41
SYMATTR Value 2490
SYMBOL cap 544 -96 R90
WINDOW 0 0 32 VBottom 2
WINDOW 3 32 32 VTop 2
SYMATTR InstName C3
SYMATTR Value 10n
SYMBOL cap 384 144 R90
WINDOW 0 0 32 VBottom 2
WINDOW 3 32 32 VTop 2
SYMATTR InstName C22
SYMATTR Value 8.5n
SYMBOL res 240 -320 R90
WINDOW 0 0 56 VBottom 2
WINDOW 3 32 56 VTop 2
SYMATTR InstName Ra1
SYMATTR Value 12263
SYMBOL res 576 -320 R90
WINDOW 0 0 56 VBottom 2
WINDOW 3 32 56 VTop 2
SYMATTR InstName Rb
SYMATTR Value 2k
SYMBOL cap 592 16 R0
SYMATTR InstName C21
SYMATTR Value 1.5n
SYMBOL voltage -192 -624 R0
WINDOW 123 0 0 Left 0
WINDOW 39 0 0 Left 0
SYMATTR InstName V2
SYMATTR Value 15
SYMBOL voltage -192 -432 R0
WINDOW 123 0 0 Left 0
WINDOW 39 0 0 Left 0
SYMATTR InstName V3
SYMATTR Value 15
SYMBOL res 592 -192 R0
SYMATTR InstName R1
SYMATTR Value 344.39
SYMBOL sympropio\\TL084 384 -256 R0
SYMATTR InstName U4
TEXT 64 400 Left 2 !.ac dec 100 1k 1Meg
